
---------- Begin Simulation Statistics ----------
final_tick                                      20000                       # Number of ticks from beginning of simulation (restored from checkpoints and never reset)
host_mem_usage                                1252104                       # Number of bytes of host memory used
host_seconds                                    82.98                       # Real time elapsed on the host
host_tick_rate                                    241                       # Simulator tick rate (ticks/s)
sim_freq                                   1000000000                       # Frequency of simulated ticks
sim_seconds                                  0.000020                       # Number of seconds simulated
sim_ticks                                       20000                       # Number of ticks simulated
system.ruby.Directory_Controller.I.Receive_Request |          15      1.33%      1.33% |          16      1.42%      2.75% |          19      1.69%      4.44% |          21      1.86%      6.30% |          17      1.51%      7.81% |          19      1.69%      9.49% |          20      1.77%     11.27% |          21      1.86%     13.13% |          14      1.24%     14.37% |          20      1.77%     16.15% |          22      1.95%     18.10% |          16      1.42%     19.52% |          17      1.51%     21.03% |          14      1.24%     22.27% |          12      1.06%     23.34% |          20      1.77%     25.11% |          27      2.40%     27.51% |          20      1.77%     29.28% |           9      0.80%     30.08% |          19      1.69%     31.77% |          25      2.22%     33.98% |          16      1.42%     35.40% |          13      1.15%     36.56% |          24      2.13%     38.69% |          12      1.06%     39.75% |          22      1.95%     41.70% |          18      1.60%     43.30% |          16      1.42%     44.72% |          20      1.77%     46.50% |          18      1.60%     48.09% |          12      1.06%     49.16% |          18      1.60%     50.75% |          24      2.13%     52.88% |          26      2.31%     55.19% |          14      1.24%     56.43% |          18      1.60%     58.03% |          11      0.98%     59.01% |          11      0.98%     59.98% |          18      1.60%     61.58% |          24      2.13%     63.71% |          22      1.95%     65.66% |          16      1.42%     67.08% |          21      1.86%     68.94% |          16      1.42%     70.36% |          11      0.98%     71.34% |           9      0.80%     72.14% |          18      1.60%     73.74% |          12      1.06%     74.80% |          25      2.22%     77.02% |          18      1.60%     78.62% |          14      1.24%     79.86% |          14      1.24%     81.10% |          10      0.89%     81.99% |          20      1.77%     83.76% |          11      0.98%     84.74% |          18      1.60%     86.34% |          29      2.57%     88.91% |          14      1.24%     90.15% |          20      1.77%     91.93% |          15      1.33%     93.26% |          12      1.06%     94.32% |          22      1.95%     96.27% |          20      1.77%     98.05% |          22      1.95%    100.00%
system.ruby.Directory_Controller.I.Receive_Request::total         1127                      
system.ruby.Directory_Controller.Receive_Request |          15      1.33%      1.33% |          16      1.42%      2.75% |          19      1.69%      4.44% |          21      1.86%      6.30% |          17      1.51%      7.81% |          19      1.69%      9.49% |          20      1.77%     11.27% |          21      1.86%     13.13% |          14      1.24%     14.37% |          20      1.77%     16.15% |          22      1.95%     18.10% |          16      1.42%     19.52% |          17      1.51%     21.03% |          14      1.24%     22.27% |          12      1.06%     23.34% |          20      1.77%     25.11% |          27      2.40%     27.51% |          20      1.77%     29.28% |           9      0.80%     30.08% |          19      1.69%     31.77% |          25      2.22%     33.98% |          16      1.42%     35.40% |          13      1.15%     36.56% |          24      2.13%     38.69% |          12      1.06%     39.75% |          22      1.95%     41.70% |          18      1.60%     43.30% |          16      1.42%     44.72% |          20      1.77%     46.50% |          18      1.60%     48.09% |          12      1.06%     49.16% |          18      1.60%     50.75% |          24      2.13%     52.88% |          26      2.31%     55.19% |          14      1.24%     56.43% |          18      1.60%     58.03% |          11      0.98%     59.01% |          11      0.98%     59.98% |          18      1.60%     61.58% |          24      2.13%     63.71% |          22      1.95%     65.66% |          16      1.42%     67.08% |          21      1.86%     68.94% |          16      1.42%     70.36% |          11      0.98%     71.34% |           9      0.80%     72.14% |          18      1.60%     73.74% |          12      1.06%     74.80% |          25      2.22%     77.02% |          18      1.60%     78.62% |          14      1.24%     79.86% |          14      1.24%     81.10% |          10      0.89%     81.99% |          20      1.77%     83.76% |          11      0.98%     84.74% |          18      1.60%     86.34% |          29      2.57%     88.91% |          14      1.24%     90.15% |          20      1.77%     91.93% |          15      1.33%     93.26% |          12      1.06%     94.32% |          22      1.95%     96.27% |          20      1.77%     98.05% |          22      1.95%    100.00%
system.ruby.Directory_Controller.Receive_Request::total         1127                      
system.ruby.L1Cache_Controller.I.Request |       12012      1.56%      1.56% |       12042      1.57%      3.13% |       12130      1.58%      4.71% |       11942      1.56%      6.27% |       11907      1.55%      7.82% |       11858      1.54%      9.36% |       12054      1.57%     10.94% |       12026      1.57%     12.50% |       11998      1.56%     14.06% |       12034      1.57%     15.63% |       12002      1.56%     17.20% |       12000      1.56%     18.76% |       12024      1.57%     20.33% |       11863      1.55%     21.87% |       12006      1.56%     23.43% |       12004      1.56%     25.00% |       11989      1.56%     26.56% |       12063      1.57%     28.13% |       11980      1.56%     29.69% |       11828      1.54%     31.23% |       12027      1.57%     32.80% |       12029      1.57%     34.37% |       12080      1.57%     35.94% |       11983      1.56%     37.50% |       12172      1.59%     39.09% |       11894      1.55%     40.64% |       11955      1.56%     42.19% |       11964      1.56%     43.75% |       12025      1.57%     45.32% |       11968      1.56%     46.88% |       12024      1.57%     48.44% |       11919      1.55%     50.00% |       12055      1.57%     51.57% |       11983      1.56%     53.13% |       11880      1.55%     54.67% |       12060      1.57%     56.25% |       11869      1.55%     57.79% |       11953      1.56%     59.35% |       12018      1.57%     60.91% |       11976      1.56%     62.47% |       11925      1.55%     64.03% |       11924      1.55%     65.58% |       11967      1.56%     67.14% |       11996      1.56%     68.70% |       11926      1.55%     70.26% |       12101      1.58%     71.83% |       11952      1.56%     73.39% |       12032      1.57%     74.96% |       12041      1.57%     76.53% |       12035      1.57%     78.09% |       11990      1.56%     79.66% |       11961      1.56%     81.21% |       12056      1.57%     82.78% |       11890      1.55%     84.33% |       11994      1.56%     85.89% |       12018      1.57%     87.46% |       11903      1.55%     89.01% |       12100      1.58%     90.59% |       12019      1.57%     92.15% |       11992      1.56%     93.71% |       12035      1.57%     95.28% |       11972      1.56%     96.84% |       12094      1.58%     98.42% |       12147      1.58%    100.00%
system.ruby.L1Cache_Controller.I.Request::total       767666                      
system.ruby.L1Cache_Controller.Request   |       12012      1.56%      1.56% |       12042      1.57%      3.13% |       12130      1.58%      4.71% |       11942      1.56%      6.27% |       11907      1.55%      7.82% |       11858      1.54%      9.36% |       12054      1.57%     10.94% |       12026      1.57%     12.50% |       11998      1.56%     14.06% |       12034      1.57%     15.63% |       12002      1.56%     17.20% |       12000      1.56%     18.76% |       12024      1.57%     20.33% |       11863      1.55%     21.87% |       12006      1.56%     23.43% |       12004      1.56%     25.00% |       11989      1.56%     26.56% |       12063      1.57%     28.13% |       11980      1.56%     29.69% |       11828      1.54%     31.23% |       12027      1.57%     32.80% |       12029      1.57%     34.37% |       12080      1.57%     35.94% |       11983      1.56%     37.50% |       12172      1.59%     39.09% |       11894      1.55%     40.64% |       11955      1.56%     42.19% |       11964      1.56%     43.75% |       12025      1.57%     45.32% |       11968      1.56%     46.88% |       12024      1.57%     48.44% |       11919      1.55%     50.00% |       12055      1.57%     51.57% |       11983      1.56%     53.13% |       11880      1.55%     54.67% |       12060      1.57%     56.25% |       11869      1.55%     57.79% |       11953      1.56%     59.35% |       12018      1.57%     60.91% |       11976      1.56%     62.47% |       11925      1.55%     64.03% |       11924      1.55%     65.58% |       11967      1.56%     67.14% |       11996      1.56%     68.70% |       11926      1.55%     70.26% |       12101      1.58%     71.83% |       11952      1.56%     73.39% |       12032      1.57%     74.96% |       12041      1.57%     76.53% |       12035      1.57%     78.09% |       11990      1.56%     79.66% |       11961      1.56%     81.21% |       12056      1.57%     82.78% |       11890      1.55%     84.33% |       11994      1.56%     85.89% |       12018      1.57%     87.46% |       11903      1.55%     89.01% |       12100      1.58%     90.59% |       12019      1.57%     92.15% |       11992      1.56%     93.71% |       12035      1.57%     95.28% |       11972      1.56%     96.84% |       12094      1.58%     98.42% |       12147      1.58%    100.00%
system.ruby.L1Cache_Controller.Request::total       767666                      
system.ruby.LD.hit_latency_hist_seqr::bucket_size            1                      
system.ruby.LD.hit_latency_hist_seqr::max_bucket            9                      
system.ruby.LD.hit_latency_hist_seqr::samples       767666                      
system.ruby.LD.hit_latency_hist_seqr::mean     0.000060                      
system.ruby.LD.hit_latency_hist_seqr::stdev     0.007741                      
system.ruby.LD.hit_latency_hist_seqr     |      767620     99.99%     99.99% |          46      0.01%    100.00% |           0      0.00%    100.00% |           0      0.00%    100.00% |           0      0.00%    100.00% |           0      0.00%    100.00% |           0      0.00%    100.00% |           0      0.00%    100.00% |           0      0.00%    100.00% |           0      0.00%    100.00%
system.ruby.LD.hit_latency_hist_seqr::total       767666                      
system.ruby.LD.latency_hist_seqr::bucket_size            1                      
system.ruby.LD.latency_hist_seqr::max_bucket            9                      
system.ruby.LD.latency_hist_seqr::samples       767666                      
system.ruby.LD.latency_hist_seqr::mean       0.000060                      
system.ruby.LD.latency_hist_seqr::stdev      0.007741                      
system.ruby.LD.latency_hist_seqr         |      767620     99.99%     99.99% |          46      0.01%    100.00% |           0      0.00%    100.00% |           0      0.00%    100.00% |           0      0.00%    100.00% |           0      0.00%    100.00% |           0      0.00%    100.00% |           0      0.00%    100.00% |           0      0.00%    100.00% |           0      0.00%    100.00%
system.ruby.LD.latency_hist_seqr::total        767666                      
system.ruby.dir_cntrl0.requestToDir.avg_buf_msgs     0.000750                       # Average number of messages in buffer
system.ruby.dir_cntrl0.requestToDir.avg_stall_time    62.836358                       # Average number of cycles messages are stalled in this MB
system.ruby.dir_cntrl1.requestToDir.avg_buf_msgs     0.000800                       # Average number of messages in buffer
system.ruby.dir_cntrl1.requestToDir.avg_stall_time    52.851757                       # Average number of cycles messages are stalled in this MB
system.ruby.dir_cntrl10.requestToDir.avg_buf_msgs     0.001100                       # Average number of messages in buffer
system.ruby.dir_cntrl10.requestToDir.avg_stall_time   101.540723                       # Average number of cycles messages are stalled in this MB
system.ruby.dir_cntrl11.requestToDir.avg_buf_msgs     0.000800                       # Average number of messages in buffer
system.ruby.dir_cntrl11.requestToDir.avg_stall_time    48.864107                       # Average number of cycles messages are stalled in this MB
system.ruby.dir_cntrl12.requestToDir.avg_buf_msgs     0.000850                       # Average number of messages in buffer
system.ruby.dir_cntrl12.requestToDir.avg_stall_time    46.915004                       # Average number of cycles messages are stalled in this MB
system.ruby.dir_cntrl13.requestToDir.avg_buf_msgs     0.000700                       # Average number of messages in buffer
system.ruby.dir_cntrl13.requestToDir.avg_stall_time    78.726014                       # Average number of cycles messages are stalled in this MB
system.ruby.dir_cntrl14.requestToDir.avg_buf_msgs     0.000600                       # Average number of messages in buffer
system.ruby.dir_cntrl14.requestToDir.avg_stall_time    55.854657                       # Average number of cycles messages are stalled in this MB
system.ruby.dir_cntrl15.requestToDir.avg_buf_msgs     0.001000                       # Average number of messages in buffer
system.ruby.dir_cntrl15.requestToDir.avg_stall_time    86.698315                       # Average number of cycles messages are stalled in this MB
system.ruby.dir_cntrl16.requestToDir.avg_buf_msgs     0.001350                       # Average number of messages in buffer
system.ruby.dir_cntrl16.requestToDir.avg_stall_time    60.812459                       # Average number of cycles messages are stalled in this MB
system.ruby.dir_cntrl17.requestToDir.avg_buf_msgs     0.001000                       # Average number of messages in buffer
system.ruby.dir_cntrl17.requestToDir.avg_stall_time    52.864257                       # Average number of cycles messages are stalled in this MB
system.ruby.dir_cntrl18.requestToDir.avg_buf_msgs     0.000450                       # Average number of messages in buffer
system.ruby.dir_cntrl18.requestToDir.avg_stall_time    49.921804                       # Average number of cycles messages are stalled in this MB
system.ruby.dir_cntrl19.requestToDir.avg_buf_msgs     0.000950                       # Average number of messages in buffer
system.ruby.dir_cntrl19.requestToDir.avg_stall_time    80.644768                       # Average number of cycles messages are stalled in this MB
system.ruby.dir_cntrl2.requestToDir.avg_buf_msgs     0.000950                       # Average number of messages in buffer
system.ruby.dir_cntrl2.requestToDir.avg_stall_time   117.412279                       # Average number of cycles messages are stalled in this MB
system.ruby.dir_cntrl20.requestToDir.avg_buf_msgs     0.001250                       # Average number of messages in buffer
system.ruby.dir_cntrl20.requestToDir.avg_stall_time    53.881406                       # Average number of cycles messages are stalled in this MB
system.ruby.dir_cntrl21.requestToDir.avg_buf_msgs     0.000800                       # Average number of messages in buffer
system.ruby.dir_cntrl21.requestToDir.avg_stall_time    71.695365                       # Average number of cycles messages are stalled in this MB
system.ruby.dir_cntrl22.requestToDir.avg_buf_msgs     0.000650                       # Average number of messages in buffer
system.ruby.dir_cntrl22.requestToDir.avg_stall_time    40.934153                       # Average number of cycles messages are stalled in this MB
system.ruby.dir_cntrl23.requestToDir.avg_buf_msgs     0.001200                       # Average number of messages in buffer
system.ruby.dir_cntrl23.requestToDir.avg_stall_time    89.675216                       # Average number of cycles messages are stalled in this MB
system.ruby.dir_cntrl24.requestToDir.avg_buf_msgs     0.000600                       # Average number of messages in buffer
system.ruby.dir_cntrl24.requestToDir.avg_stall_time   110.465277                       # Average number of cycles messages are stalled in this MB
system.ruby.dir_cntrl25.requestToDir.avg_buf_msgs     0.001100                       # Average number of messages in buffer
system.ruby.dir_cntrl25.requestToDir.avg_stall_time    60.818309                       # Average number of cycles messages are stalled in this MB
system.ruby.dir_cntrl26.requestToDir.avg_buf_msgs     0.000900                       # Average number of messages in buffer
system.ruby.dir_cntrl26.requestToDir.avg_stall_time   110.485326                       # Average number of cycles messages are stalled in this MB
system.ruby.dir_cntrl27.requestToDir.avg_buf_msgs     0.000800                       # Average number of messages in buffer
system.ruby.dir_cntrl27.requestToDir.avg_stall_time    88.690465                       # Average number of cycles messages are stalled in this MB
system.ruby.dir_cntrl28.requestToDir.avg_buf_msgs     0.001000                       # Average number of messages in buffer
system.ruby.dir_cntrl28.requestToDir.avg_stall_time    80.700365                       # Average number of cycles messages are stalled in this MB
system.ruby.dir_cntrl29.requestToDir.avg_buf_msgs     0.000900                       # Average number of messages in buffer
system.ruby.dir_cntrl29.requestToDir.avg_stall_time    98.590970                       # Average number of cycles messages are stalled in this MB
system.ruby.dir_cntrl3.requestToDir.avg_buf_msgs     0.001050                       # Average number of messages in buffer
system.ruby.dir_cntrl3.requestToDir.avg_stall_time    85.609020                       # Average number of cycles messages are stalled in this MB
system.ruby.dir_cntrl30.requestToDir.avg_buf_msgs     0.000600                       # Average number of messages in buffer
system.ruby.dir_cntrl30.requestToDir.avg_stall_time    89.637118                       # Average number of cycles messages are stalled in this MB
system.ruby.dir_cntrl31.requestToDir.avg_buf_msgs     0.000900                       # Average number of messages in buffer
system.ruby.dir_cntrl31.requestToDir.avg_stall_time    61.822159                       # Average number of cycles messages are stalled in this MB
system.ruby.dir_cntrl32.requestToDir.avg_buf_msgs     0.001200                       # Average number of messages in buffer
system.ruby.dir_cntrl32.requestToDir.avg_stall_time   125.411829                       # Average number of cycles messages are stalled in this MB
system.ruby.dir_cntrl33.requestToDir.avg_buf_msgs     0.001300                       # Average number of messages in buffer
system.ruby.dir_cntrl33.requestToDir.avg_stall_time   124.419579                       # Average number of cycles messages are stalled in this MB
system.ruby.dir_cntrl34.requestToDir.avg_buf_msgs     0.000700                       # Average number of messages in buffer
system.ruby.dir_cntrl34.requestToDir.avg_stall_time   131.315284                       # Average number of cycles messages are stalled in this MB
system.ruby.dir_cntrl35.requestToDir.avg_buf_msgs     0.000900                       # Average number of messages in buffer
system.ruby.dir_cntrl35.requestToDir.avg_stall_time   102.621919                       # Average number of cycles messages are stalled in this MB
system.ruby.dir_cntrl36.requestToDir.avg_buf_msgs     0.000550                       # Average number of messages in buffer
system.ruby.dir_cntrl36.requestToDir.avg_stall_time    47.902905                       # Average number of cycles messages are stalled in this MB
system.ruby.dir_cntrl37.requestToDir.avg_buf_msgs     0.000550                       # Average number of messages in buffer
system.ruby.dir_cntrl37.requestToDir.avg_stall_time    77.717164                       # Average number of cycles messages are stalled in this MB
system.ruby.dir_cntrl38.requestToDir.avg_buf_msgs     0.000900                       # Average number of messages in buffer
system.ruby.dir_cntrl38.requestToDir.avg_stall_time    60.854857                       # Average number of cycles messages are stalled in this MB
system.ruby.dir_cntrl39.requestToDir.avg_buf_msgs     0.001200                       # Average number of messages in buffer
system.ruby.dir_cntrl39.requestToDir.avg_stall_time    92.666317                       # Average number of cycles messages are stalled in this MB
system.ruby.dir_cntrl4.requestToDir.avg_buf_msgs     0.000850                       # Average number of messages in buffer
system.ruby.dir_cntrl4.requestToDir.avg_stall_time    29.981801                       # Average number of cycles messages are stalled in this MB
system.ruby.dir_cntrl40.requestToDir.avg_buf_msgs     0.001100                       # Average number of messages in buffer
system.ruby.dir_cntrl40.requestToDir.avg_stall_time    55.867707                       # Average number of cycles messages are stalled in this MB
system.ruby.dir_cntrl41.requestToDir.avg_buf_msgs     0.000800                       # Average number of messages in buffer
system.ruby.dir_cntrl41.requestToDir.avg_stall_time    57.836908                       # Average number of cycles messages are stalled in this MB
system.ruby.dir_cntrl42.requestToDir.avg_buf_msgs     0.001050                       # Average number of messages in buffer
system.ruby.dir_cntrl42.requestToDir.avg_stall_time    79.756462                       # Average number of cycles messages are stalled in this MB
system.ruby.dir_cntrl43.requestToDir.avg_buf_msgs     0.000800                       # Average number of messages in buffer
system.ruby.dir_cntrl43.requestToDir.avg_stall_time    72.754712                       # Average number of cycles messages are stalled in this MB
system.ruby.dir_cntrl44.requestToDir.avg_buf_msgs     0.000550                       # Average number of messages in buffer
system.ruby.dir_cntrl44.requestToDir.avg_stall_time    74.777161                       # Average number of cycles messages are stalled in this MB
system.ruby.dir_cntrl45.requestToDir.avg_buf_msgs     0.000450                       # Average number of messages in buffer
system.ruby.dir_cntrl45.requestToDir.avg_stall_time   112.467427                       # Average number of cycles messages are stalled in this MB
system.ruby.dir_cntrl46.requestToDir.avg_buf_msgs     0.000900                       # Average number of messages in buffer
system.ruby.dir_cntrl46.requestToDir.avg_stall_time    88.665567                       # Average number of cycles messages are stalled in this MB
system.ruby.dir_cntrl47.requestToDir.avg_buf_msgs     0.000600                       # Average number of messages in buffer
system.ruby.dir_cntrl47.requestToDir.avg_stall_time    58.826759                       # Average number of cycles messages are stalled in this MB
system.ruby.dir_cntrl48.requestToDir.avg_buf_msgs     0.001250                       # Average number of messages in buffer
system.ruby.dir_cntrl48.requestToDir.avg_stall_time   103.525274                       # Average number of cycles messages are stalled in this MB
system.ruby.dir_cntrl49.requestToDir.avg_buf_msgs     0.000900                       # Average number of messages in buffer
system.ruby.dir_cntrl49.requestToDir.avg_stall_time   111.492875                       # Average number of cycles messages are stalled in this MB
system.ruby.dir_cntrl5.requestToDir.avg_buf_msgs     0.000950                       # Average number of messages in buffer
system.ruby.dir_cntrl5.requestToDir.avg_stall_time    92.585721                       # Average number of cycles messages are stalled in this MB
system.ruby.dir_cntrl50.requestToDir.avg_buf_msgs     0.000700                       # Average number of messages in buffer
system.ruby.dir_cntrl50.requestToDir.avg_stall_time   126.313784                       # Average number of cycles messages are stalled in this MB
system.ruby.dir_cntrl51.requestToDir.avg_buf_msgs     0.000700                       # Average number of messages in buffer
system.ruby.dir_cntrl51.requestToDir.avg_stall_time   100.497725                       # Average number of cycles messages are stalled in this MB
system.ruby.dir_cntrl52.requestToDir.avg_buf_msgs     0.000500                       # Average number of messages in buffer
system.ruby.dir_cntrl52.requestToDir.avg_stall_time    49.906055                       # Average number of cycles messages are stalled in this MB
system.ruby.dir_cntrl53.requestToDir.avg_buf_msgs     0.001000                       # Average number of messages in buffer
system.ruby.dir_cntrl53.requestToDir.avg_stall_time    55.843608                       # Average number of cycles messages are stalled in this MB
system.ruby.dir_cntrl54.requestToDir.avg_buf_msgs     0.000550                       # Average number of messages in buffer
system.ruby.dir_cntrl54.requestToDir.avg_stall_time    93.689316                       # Average number of cycles messages are stalled in this MB
system.ruby.dir_cntrl55.requestToDir.avg_buf_msgs     0.000900                       # Average number of messages in buffer
system.ruby.dir_cntrl55.requestToDir.avg_stall_time    99.628019                       # Average number of cycles messages are stalled in this MB
system.ruby.dir_cntrl56.requestToDir.avg_buf_msgs     0.001450                       # Average number of messages in buffer
system.ruby.dir_cntrl56.requestToDir.avg_stall_time   115.422829                       # Average number of cycles messages are stalled in this MB
system.ruby.dir_cntrl57.requestToDir.avg_buf_msgs     0.000700                       # Average number of messages in buffer
system.ruby.dir_cntrl57.requestToDir.avg_stall_time    85.675766                       # Average number of cycles messages are stalled in this MB
system.ruby.dir_cntrl58.requestToDir.avg_buf_msgs     0.001000                       # Average number of messages in buffer
system.ruby.dir_cntrl58.requestToDir.avg_stall_time   126.314634                       # Average number of cycles messages are stalled in this MB
system.ruby.dir_cntrl59.requestToDir.avg_buf_msgs     0.000750                       # Average number of messages in buffer
system.ruby.dir_cntrl59.requestToDir.avg_stall_time    33.926754                       # Average number of cycles messages are stalled in this MB
system.ruby.dir_cntrl6.requestToDir.avg_buf_msgs     0.001000                       # Average number of messages in buffer
system.ruby.dir_cntrl6.requestToDir.avg_stall_time    87.653667                       # Average number of cycles messages are stalled in this MB
system.ruby.dir_cntrl60.requestToDir.avg_buf_msgs     0.000600                       # Average number of messages in buffer
system.ruby.dir_cntrl60.requestToDir.avg_stall_time    15.040248                       # Average number of cycles messages are stalled in this MB
system.ruby.dir_cntrl61.requestToDir.avg_buf_msgs     0.001100                       # Average number of messages in buffer
system.ruby.dir_cntrl61.requestToDir.avg_stall_time    31.952352                       # Average number of cycles messages are stalled in this MB
system.ruby.dir_cntrl62.requestToDir.avg_buf_msgs     0.001000                       # Average number of messages in buffer
system.ruby.dir_cntrl62.requestToDir.avg_stall_time    18.991750                       # Average number of cycles messages are stalled in this MB
system.ruby.dir_cntrl63.requestToDir.avg_buf_msgs     0.001100                       # Average number of messages in buffer
system.ruby.dir_cntrl63.requestToDir.avg_stall_time   110.432928                       # Average number of cycles messages are stalled in this MB
system.ruby.dir_cntrl7.requestToDir.avg_buf_msgs     0.001050                       # Average number of messages in buffer
system.ruby.dir_cntrl7.requestToDir.avg_stall_time    57.845008                       # Average number of cycles messages are stalled in this MB
system.ruby.dir_cntrl8.requestToDir.avg_buf_msgs     0.000700                       # Average number of messages in buffer
system.ruby.dir_cntrl8.requestToDir.avg_stall_time    77.720014                       # Average number of cycles messages are stalled in this MB
system.ruby.dir_cntrl9.requestToDir.avg_buf_msgs     0.001000                       # Average number of messages in buffer
system.ruby.dir_cntrl9.requestToDir.avg_stall_time    70.742813                       # Average number of cycles messages are stalled in this MB
system.ruby.hit_latency_hist_seqr::bucket_size            1                      
system.ruby.hit_latency_hist_seqr::max_bucket            9                      
system.ruby.hit_latency_hist_seqr::samples       767666                      
system.ruby.hit_latency_hist_seqr::mean      0.000060                      
system.ruby.hit_latency_hist_seqr::stdev     0.007741                      
system.ruby.hit_latency_hist_seqr        |      767620     99.99%     99.99% |          46      0.01%    100.00% |           0      0.00%    100.00% |           0      0.00%    100.00% |           0      0.00%    100.00% |           0      0.00%    100.00% |           0      0.00%    100.00% |           0      0.00%    100.00% |           0      0.00%    100.00% |           0      0.00%    100.00%
system.ruby.hit_latency_hist_seqr::total       767666                      
system.ruby.l1_cntrl0.cacheMemory.demand_accesses            0                       # Number of cache demand accesses
system.ruby.l1_cntrl0.cacheMemory.demand_hits            0                       # Number of cache demand hits
system.ruby.l1_cntrl0.cacheMemory.demand_misses            0                       # Number of cache demand misses
system.ruby.l1_cntrl0.mandatoryQueue.avg_buf_msgs     0.600620                       # Average number of messages in buffer
system.ruby.l1_cntrl0.mandatoryQueue.avg_stall_time     0.999850                       # Average number of cycles messages are stalled in this MB
system.ruby.l1_cntrl0.requestFromCache.avg_buf_msgs  5979.623669                       # Average number of messages in buffer
system.ruby.l1_cntrl0.requestFromCache.avg_stall_time     1.999600                       # Average number of cycles messages are stalled in this MB
system.ruby.l1_cntrl1.cacheMemory.demand_accesses            0                       # Number of cache demand accesses
system.ruby.l1_cntrl1.cacheMemory.demand_hits            0                       # Number of cache demand hits
system.ruby.l1_cntrl1.cacheMemory.demand_misses            0                       # Number of cache demand misses
system.ruby.l1_cntrl1.mandatoryQueue.avg_buf_msgs     0.602120                       # Average number of messages in buffer
system.ruby.l1_cntrl1.mandatoryQueue.avg_stall_time     0.999950                       # Average number of cycles messages are stalled in this MB
system.ruby.l1_cntrl1.requestFromCache.avg_buf_msgs  5995.443478                       # Average number of messages in buffer
system.ruby.l1_cntrl1.requestFromCache.avg_stall_time    35.901755                       # Average number of cycles messages are stalled in this MB
system.ruby.l1_cntrl10.cacheMemory.demand_accesses            0                       # Number of cache demand accesses
system.ruby.l1_cntrl10.cacheMemory.demand_hits            0                       # Number of cache demand hits
system.ruby.l1_cntrl10.cacheMemory.demand_misses            0                       # Number of cache demand misses
system.ruby.l1_cntrl10.mandatoryQueue.avg_buf_msgs     0.600070                       # Average number of messages in buffer
system.ruby.l1_cntrl10.mandatoryQueue.avg_stall_time     0.999950                       # Average number of cycles messages are stalled in this MB
system.ruby.l1_cntrl10.requestFromCache.avg_buf_msgs  5931.439128                       # Average number of messages in buffer
system.ruby.l1_cntrl10.requestFromCache.avg_stall_time    97.592620                       # Average number of cycles messages are stalled in this MB
system.ruby.l1_cntrl11.cacheMemory.demand_accesses            0                       # Number of cache demand accesses
system.ruby.l1_cntrl11.cacheMemory.demand_hits            0                       # Number of cache demand hits
system.ruby.l1_cntrl11.cacheMemory.demand_misses            0                       # Number of cache demand misses
system.ruby.l1_cntrl11.mandatoryQueue.avg_buf_msgs     0.600020                       # Average number of messages in buffer
system.ruby.l1_cntrl11.mandatoryQueue.avg_stall_time     0.999950                       # Average number of cycles messages are stalled in this MB
system.ruby.l1_cntrl11.requestFromCache.avg_buf_msgs  5990.159642                       # Average number of messages in buffer
system.ruby.l1_cntrl11.requestFromCache.avg_stall_time    72.705515                       # Average number of cycles messages are stalled in this MB
system.ruby.l1_cntrl12.cacheMemory.demand_accesses            0                       # Number of cache demand accesses
system.ruby.l1_cntrl12.cacheMemory.demand_hits            0                       # Number of cache demand hits
system.ruby.l1_cntrl12.cacheMemory.demand_misses            0                       # Number of cache demand misses
system.ruby.l1_cntrl12.mandatoryQueue.avg_buf_msgs     0.601220                       # Average number of messages in buffer
system.ruby.l1_cntrl12.mandatoryQueue.avg_stall_time     0.999900                       # Average number of cycles messages are stalled in this MB
system.ruby.l1_cntrl12.requestFromCache.avg_buf_msgs  5962.774661                       # Average number of messages in buffer
system.ruby.l1_cntrl12.requestFromCache.avg_stall_time    46.859357                       # Average number of cycles messages are stalled in this MB
system.ruby.l1_cntrl13.cacheMemory.demand_accesses            0                       # Number of cache demand accesses
system.ruby.l1_cntrl13.cacheMemory.demand_hits            0                       # Number of cache demand hits
system.ruby.l1_cntrl13.cacheMemory.demand_misses            0                       # Number of cache demand misses
system.ruby.l1_cntrl13.mandatoryQueue.avg_buf_msgs     0.593170                       # Average number of messages in buffer
system.ruby.l1_cntrl13.mandatoryQueue.avg_stall_time     0.999950                       # Average number of cycles messages are stalled in this MB
system.ruby.l1_cntrl13.requestFromCache.avg_buf_msgs  5927.640868                       # Average number of messages in buffer
system.ruby.l1_cntrl13.requestFromCache.avg_stall_time    39.897305                       # Average number of cycles messages are stalled in this MB
system.ruby.l1_cntrl14.cacheMemory.demand_accesses            0                       # Number of cache demand accesses
system.ruby.l1_cntrl14.cacheMemory.demand_hits            0                       # Number of cache demand hits
system.ruby.l1_cntrl14.cacheMemory.demand_misses            0                       # Number of cache demand misses
system.ruby.l1_cntrl14.mandatoryQueue.avg_buf_msgs     0.600270                       # Average number of messages in buffer
system.ruby.l1_cntrl14.mandatoryQueue.avg_stall_time     0.999950                       # Average number of cycles messages are stalled in this MB
system.ruby.l1_cntrl14.requestFromCache.avg_buf_msgs  5978.386431                       # Average number of messages in buffer
system.ruby.l1_cntrl14.requestFromCache.avg_stall_time    45.872006                       # Average number of cycles messages are stalled in this MB
system.ruby.l1_cntrl15.cacheMemory.demand_accesses            0                       # Number of cache demand accesses
system.ruby.l1_cntrl15.cacheMemory.demand_hits            0                       # Number of cache demand hits
system.ruby.l1_cntrl15.cacheMemory.demand_misses            0                       # Number of cache demand misses
system.ruby.l1_cntrl15.mandatoryQueue.avg_buf_msgs     0.600220                       # Average number of messages in buffer
system.ruby.l1_cntrl15.mandatoryQueue.avg_stall_time     0.999950                       # Average number of cycles messages are stalled in this MB
system.ruby.l1_cntrl15.requestFromCache.avg_buf_msgs  5989.518974                       # Average number of messages in buffer
system.ruby.l1_cntrl15.requestFromCache.avg_stall_time    69.753412                       # Average number of cycles messages are stalled in this MB
system.ruby.l1_cntrl16.cacheMemory.demand_accesses            0                       # Number of cache demand accesses
system.ruby.l1_cntrl16.cacheMemory.demand_hits            0                       # Number of cache demand hits
system.ruby.l1_cntrl16.cacheMemory.demand_misses            0                       # Number of cache demand misses
system.ruby.l1_cntrl16.mandatoryQueue.avg_buf_msgs     0.599470                       # Average number of messages in buffer
system.ruby.l1_cntrl16.mandatoryQueue.avg_stall_time     0.999950                       # Average number of cycles messages are stalled in this MB
system.ruby.l1_cntrl16.requestFromCache.avg_buf_msgs  5943.817309                       # Average number of messages in buffer
system.ruby.l1_cntrl16.requestFromCache.avg_stall_time    32.900455                       # Average number of cycles messages are stalled in this MB
system.ruby.l1_cntrl17.cacheMemory.demand_accesses            0                       # Number of cache demand accesses
system.ruby.l1_cntrl17.cacheMemory.demand_hits            0                       # Number of cache demand hits
system.ruby.l1_cntrl17.cacheMemory.demand_misses            0                       # Number of cache demand misses
system.ruby.l1_cntrl17.mandatoryQueue.avg_buf_msgs     0.603120                       # Average number of messages in buffer
system.ruby.l1_cntrl17.mandatoryQueue.avg_stall_time     0.999950                       # Average number of cycles messages are stalled in this MB
system.ruby.l1_cntrl17.requestFromCache.avg_buf_msgs  5988.475776                       # Average number of messages in buffer
system.ruby.l1_cntrl17.requestFromCache.avg_stall_time    61.770561                       # Average number of cycles messages are stalled in this MB
system.ruby.l1_cntrl18.cacheMemory.demand_accesses            0                       # Number of cache demand accesses
system.ruby.l1_cntrl18.cacheMemory.demand_hits            0                       # Number of cache demand hits
system.ruby.l1_cntrl18.cacheMemory.demand_misses            0                       # Number of cache demand misses
system.ruby.l1_cntrl18.mandatoryQueue.avg_buf_msgs     0.599020                       # Average number of messages in buffer
system.ruby.l1_cntrl18.mandatoryQueue.avg_stall_time     0.999900                       # Average number of cycles messages are stalled in this MB
system.ruby.l1_cntrl18.requestFromCache.avg_buf_msgs  5945.312734                       # Average number of messages in buffer
system.ruby.l1_cntrl18.requestFromCache.avg_stall_time    79.598320                       # Average number of cycles messages are stalled in this MB
system.ruby.l1_cntrl19.cacheMemory.demand_accesses            0                       # Number of cache demand accesses
system.ruby.l1_cntrl19.cacheMemory.demand_hits            0                       # Number of cache demand hits
system.ruby.l1_cntrl19.cacheMemory.demand_misses            0                       # Number of cache demand misses
system.ruby.l1_cntrl19.mandatoryQueue.avg_buf_msgs     0.591420                       # Average number of messages in buffer
system.ruby.l1_cntrl19.mandatoryQueue.avg_stall_time     0.999950                       # Average number of cycles messages are stalled in this MB
system.ruby.l1_cntrl19.requestFromCache.avg_buf_msgs  5860.794010                       # Average number of messages in buffer
system.ruby.l1_cntrl19.requestFromCache.avg_stall_time    39.888356                       # Average number of cycles messages are stalled in this MB
system.ruby.l1_cntrl2.cacheMemory.demand_accesses            0                       # Number of cache demand accesses
system.ruby.l1_cntrl2.cacheMemory.demand_hits            0                       # Number of cache demand hits
system.ruby.l1_cntrl2.cacheMemory.demand_misses            0                       # Number of cache demand misses
system.ruby.l1_cntrl2.mandatoryQueue.avg_buf_msgs     0.606470                       # Average number of messages in buffer
system.ruby.l1_cntrl2.mandatoryQueue.avg_stall_time     0.999950                       # Average number of cycles messages are stalled in this MB
system.ruby.l1_cntrl2.requestFromCache.avg_buf_msgs  6026.103895                       # Average number of messages in buffer
system.ruby.l1_cntrl2.requestFromCache.avg_stall_time    55.764612                       # Average number of cycles messages are stalled in this MB
system.ruby.l1_cntrl20.cacheMemory.demand_accesses            0                       # Number of cache demand accesses
system.ruby.l1_cntrl20.cacheMemory.demand_hits            0                       # Number of cache demand hits
system.ruby.l1_cntrl20.cacheMemory.demand_misses            0                       # Number of cache demand misses
system.ruby.l1_cntrl20.mandatoryQueue.avg_buf_msgs     0.601320                       # Average number of messages in buffer
system.ruby.l1_cntrl20.mandatoryQueue.avg_stall_time     0.999950                       # Average number of cycles messages are stalled in this MB
system.ruby.l1_cntrl20.requestFromCache.avg_buf_msgs  5988.516324                       # Average number of messages in buffer
system.ruby.l1_cntrl20.requestFromCache.avg_stall_time    68.709415                       # Average number of cycles messages are stalled in this MB
system.ruby.l1_cntrl21.cacheMemory.demand_accesses            0                       # Number of cache demand accesses
system.ruby.l1_cntrl21.cacheMemory.demand_hits            0                       # Number of cache demand hits
system.ruby.l1_cntrl21.cacheMemory.demand_misses            0                       # Number of cache demand misses
system.ruby.l1_cntrl21.mandatoryQueue.avg_buf_msgs     0.601470                       # Average number of messages in buffer
system.ruby.l1_cntrl21.mandatoryQueue.avg_stall_time     0.999950                       # Average number of cycles messages are stalled in this MB
system.ruby.l1_cntrl21.requestFromCache.avg_buf_msgs  6027.075096                       # Average number of messages in buffer
system.ruby.l1_cntrl21.requestFromCache.avg_stall_time    74.727314                       # Average number of cycles messages are stalled in this MB
system.ruby.l1_cntrl22.cacheMemory.demand_accesses            0                       # Number of cache demand accesses
system.ruby.l1_cntrl22.cacheMemory.demand_hits            0                       # Number of cache demand hits
system.ruby.l1_cntrl22.cacheMemory.demand_misses            0                       # Number of cache demand misses
system.ruby.l1_cntrl22.mandatoryQueue.avg_buf_msgs     0.603970                       # Average number of messages in buffer
system.ruby.l1_cntrl22.mandatoryQueue.avg_stall_time     0.999950                       # Average number of cycles messages are stalled in this MB
system.ruby.l1_cntrl22.requestFromCache.avg_buf_msgs  6039.475876                       # Average number of messages in buffer
system.ruby.l1_cntrl22.requestFromCache.avg_stall_time    55.819609                       # Average number of cycles messages are stalled in this MB
system.ruby.l1_cntrl23.cacheMemory.demand_accesses            0                       # Number of cache demand accesses
system.ruby.l1_cntrl23.cacheMemory.demand_hits            0                       # Number of cache demand hits
system.ruby.l1_cntrl23.cacheMemory.demand_misses            0                       # Number of cache demand misses
system.ruby.l1_cntrl23.mandatoryQueue.avg_buf_msgs     0.599170                       # Average number of messages in buffer
system.ruby.l1_cntrl23.mandatoryQueue.avg_stall_time     0.999950                       # Average number of cycles messages are stalled in this MB
system.ruby.l1_cntrl23.requestFromCache.avg_buf_msgs  5941.550572                       # Average number of messages in buffer
system.ruby.l1_cntrl23.requestFromCache.avg_stall_time    18.924004                       # Average number of cycles messages are stalled in this MB
system.ruby.l1_cntrl24.cacheMemory.demand_accesses            0                       # Number of cache demand accesses
system.ruby.l1_cntrl24.cacheMemory.demand_hits            0                       # Number of cache demand hits
system.ruby.l1_cntrl24.cacheMemory.demand_misses            0                       # Number of cache demand misses
system.ruby.l1_cntrl24.mandatoryQueue.avg_buf_msgs     0.608620                       # Average number of messages in buffer
system.ruby.l1_cntrl24.mandatoryQueue.avg_stall_time     0.999850                       # Average number of cycles messages are stalled in this MB
system.ruby.l1_cntrl24.requestFromCache.avg_buf_msgs  6066.910554                       # Average number of messages in buffer
system.ruby.l1_cntrl24.requestFromCache.avg_stall_time   101.540073                       # Average number of cycles messages are stalled in this MB
system.ruby.l1_cntrl25.cacheMemory.demand_accesses            0                       # Number of cache demand accesses
system.ruby.l1_cntrl25.cacheMemory.demand_hits            0                       # Number of cache demand hits
system.ruby.l1_cntrl25.cacheMemory.demand_misses            0                       # Number of cache demand misses
system.ruby.l1_cntrl25.mandatoryQueue.avg_buf_msgs     0.594670                       # Average number of messages in buffer
system.ruby.l1_cntrl25.mandatoryQueue.avg_stall_time     0.999950                       # Average number of cycles messages are stalled in this MB
system.ruby.l1_cntrl25.requestFromCache.avg_buf_msgs  5874.198190                       # Average number of messages in buffer
system.ruby.l1_cntrl25.requestFromCache.avg_stall_time    92.490725                       # Average number of cycles messages are stalled in this MB
system.ruby.l1_cntrl26.cacheMemory.demand_accesses            0                       # Number of cache demand accesses
system.ruby.l1_cntrl26.cacheMemory.demand_hits            0                       # Number of cache demand hits
system.ruby.l1_cntrl26.cacheMemory.demand_misses            0                       # Number of cache demand misses
system.ruby.l1_cntrl26.mandatoryQueue.avg_buf_msgs     0.597720                       # Average number of messages in buffer
system.ruby.l1_cntrl26.mandatoryQueue.avg_stall_time     0.999950                       # Average number of cycles messages are stalled in this MB
system.ruby.l1_cntrl26.requestFromCache.avg_buf_msgs  5935.198290                       # Average number of messages in buffer
system.ruby.l1_cntrl26.requestFromCache.avg_stall_time    36.851607                       # Average number of cycles messages are stalled in this MB
system.ruby.l1_cntrl27.cacheMemory.demand_accesses            0                       # Number of cache demand accesses
system.ruby.l1_cntrl27.cacheMemory.demand_hits            0                       # Number of cache demand hits
system.ruby.l1_cntrl27.cacheMemory.demand_misses            0                       # Number of cache demand misses
system.ruby.l1_cntrl27.mandatoryQueue.avg_buf_msgs     0.598220                       # Average number of messages in buffer
system.ruby.l1_cntrl27.mandatoryQueue.avg_stall_time     0.999950                       # Average number of cycles messages are stalled in this MB
system.ruby.l1_cntrl27.requestFromCache.avg_buf_msgs  5932.443428                       # Average number of messages in buffer
system.ruby.l1_cntrl27.requestFromCache.avg_stall_time    73.611569                       # Average number of cycles messages are stalled in this MB
system.ruby.l1_cntrl28.cacheMemory.demand_accesses            0                       # Number of cache demand accesses
system.ruby.l1_cntrl28.cacheMemory.demand_hits            0                       # Number of cache demand hits
system.ruby.l1_cntrl28.cacheMemory.demand_misses            0                       # Number of cache demand misses
system.ruby.l1_cntrl28.mandatoryQueue.avg_buf_msgs     0.601220                       # Average number of messages in buffer
system.ruby.l1_cntrl28.mandatoryQueue.avg_stall_time     0.999950                       # Average number of cycles messages are stalled in this MB
system.ruby.l1_cntrl28.requestFromCache.avg_buf_msgs  5973.965802                       # Average number of messages in buffer
system.ruby.l1_cntrl28.requestFromCache.avg_stall_time    67.714114                       # Average number of cycles messages are stalled in this MB
system.ruby.l1_cntrl29.cacheMemory.demand_accesses            0                       # Number of cache demand accesses
system.ruby.l1_cntrl29.cacheMemory.demand_hits            0                       # Number of cache demand hits
system.ruby.l1_cntrl29.cacheMemory.demand_misses            0                       # Number of cache demand misses
system.ruby.l1_cntrl29.mandatoryQueue.avg_buf_msgs     0.598420                       # Average number of messages in buffer
system.ruby.l1_cntrl29.mandatoryQueue.avg_stall_time     0.999850                       # Average number of cycles messages are stalled in this MB
system.ruby.l1_cntrl29.requestFromCache.avg_buf_msgs  5993.375031                       # Average number of messages in buffer
system.ruby.l1_cntrl29.requestFromCache.avg_stall_time    48.825209                       # Average number of cycles messages are stalled in this MB
system.ruby.l1_cntrl3.cacheMemory.demand_accesses            0                       # Number of cache demand accesses
system.ruby.l1_cntrl3.cacheMemory.demand_hits            0                       # Number of cache demand hits
system.ruby.l1_cntrl3.cacheMemory.demand_misses            0                       # Number of cache demand misses
system.ruby.l1_cntrl3.mandatoryQueue.avg_buf_msgs     0.597120                       # Average number of messages in buffer
system.ruby.l1_cntrl3.mandatoryQueue.avg_stall_time     0.999950                       # Average number of cycles messages are stalled in this MB
system.ruby.l1_cntrl3.requestFromCache.avg_buf_msgs  5954.929704                       # Average number of messages in buffer
system.ruby.l1_cntrl3.requestFromCache.avg_stall_time    47.819209                       # Average number of cycles messages are stalled in this MB
system.ruby.l1_cntrl30.cacheMemory.demand_accesses            0                       # Number of cache demand accesses
system.ruby.l1_cntrl30.cacheMemory.demand_hits            0                       # Number of cache demand hits
system.ruby.l1_cntrl30.cacheMemory.demand_misses            0                       # Number of cache demand misses
system.ruby.l1_cntrl30.mandatoryQueue.avg_buf_msgs     0.601220                       # Average number of messages in buffer
system.ruby.l1_cntrl30.mandatoryQueue.avg_stall_time     0.999800                       # Average number of cycles messages are stalled in this MB
system.ruby.l1_cntrl30.requestFromCache.avg_buf_msgs  6016.647618                       # Average number of messages in buffer
system.ruby.l1_cntrl30.requestFromCache.avg_stall_time    87.595270                       # Average number of cycles messages are stalled in this MB
system.ruby.l1_cntrl31.cacheMemory.demand_accesses            0                       # Number of cache demand accesses
system.ruby.l1_cntrl31.cacheMemory.demand_hits            0                       # Number of cache demand hits
system.ruby.l1_cntrl31.cacheMemory.demand_misses            0                       # Number of cache demand misses
system.ruby.l1_cntrl31.mandatoryQueue.avg_buf_msgs     0.595920                       # Average number of messages in buffer
system.ruby.l1_cntrl31.mandatoryQueue.avg_stall_time     0.999900                       # Average number of cycles messages are stalled in this MB
system.ruby.l1_cntrl31.requestFromCache.avg_buf_msgs  5904.974351                       # Average number of messages in buffer
system.ruby.l1_cntrl31.requestFromCache.avg_stall_time    42.828609                       # Average number of cycles messages are stalled in this MB
system.ruby.l1_cntrl32.cacheMemory.demand_accesses            0                       # Number of cache demand accesses
system.ruby.l1_cntrl32.cacheMemory.demand_hits            0                       # Number of cache demand hits
system.ruby.l1_cntrl32.cacheMemory.demand_misses            0                       # Number of cache demand misses
system.ruby.l1_cntrl32.mandatoryQueue.avg_buf_msgs     0.602770                       # Average number of messages in buffer
system.ruby.l1_cntrl32.mandatoryQueue.avg_stall_time     0.999900                       # Average number of cycles messages are stalled in this MB
system.ruby.l1_cntrl32.requestFromCache.avg_buf_msgs  6011.474126                       # Average number of messages in buffer
system.ruby.l1_cntrl32.requestFromCache.avg_stall_time    36.912504                       # Average number of cycles messages are stalled in this MB
system.ruby.l1_cntrl33.cacheMemory.demand_accesses            0                       # Number of cache demand accesses
system.ruby.l1_cntrl33.cacheMemory.demand_hits            0                       # Number of cache demand hits
system.ruby.l1_cntrl33.cacheMemory.demand_misses            0                       # Number of cache demand misses
system.ruby.l1_cntrl33.mandatoryQueue.avg_buf_msgs     0.599120                       # Average number of messages in buffer
system.ruby.l1_cntrl33.mandatoryQueue.avg_stall_time     0.999950                       # Average number of cycles messages are stalled in this MB
system.ruby.l1_cntrl33.requestFromCache.avg_buf_msgs  5958.881956                       # Average number of messages in buffer
system.ruby.l1_cntrl33.requestFromCache.avg_stall_time    42.867557                       # Average number of cycles messages are stalled in this MB
system.ruby.l1_cntrl34.cacheMemory.demand_accesses            0                       # Number of cache demand accesses
system.ruby.l1_cntrl34.cacheMemory.demand_hits            0                       # Number of cache demand hits
system.ruby.l1_cntrl34.cacheMemory.demand_misses            0                       # Number of cache demand misses
system.ruby.l1_cntrl34.mandatoryQueue.avg_buf_msgs     0.593970                       # Average number of messages in buffer
system.ruby.l1_cntrl34.mandatoryQueue.avg_stall_time     0.999950                       # Average number of cycles messages are stalled in this MB
system.ruby.l1_cntrl34.requestFromCache.avg_buf_msgs  5894.648918                       # Average number of messages in buffer
system.ruby.l1_cntrl34.requestFromCache.avg_stall_time    29.876956                       # Average number of cycles messages are stalled in this MB
system.ruby.l1_cntrl35.cacheMemory.demand_accesses            0                       # Number of cache demand accesses
system.ruby.l1_cntrl35.cacheMemory.demand_hits            0                       # Number of cache demand hits
system.ruby.l1_cntrl35.cacheMemory.demand_misses            0                       # Number of cache demand misses
system.ruby.l1_cntrl35.mandatoryQueue.avg_buf_msgs     0.603020                       # Average number of messages in buffer
system.ruby.l1_cntrl35.mandatoryQueue.avg_stall_time     0.999950                       # Average number of cycles messages are stalled in this MB
system.ruby.l1_cntrl35.requestFromCache.avg_buf_msgs  5973.177541                       # Average number of messages in buffer
system.ruby.l1_cntrl35.requestFromCache.avg_stall_time    73.680966                       # Average number of cycles messages are stalled in this MB
system.ruby.l1_cntrl36.cacheMemory.demand_accesses            0                       # Number of cache demand accesses
system.ruby.l1_cntrl36.cacheMemory.demand_hits            0                       # Number of cache demand hits
system.ruby.l1_cntrl36.cacheMemory.demand_misses            0                       # Number of cache demand misses
system.ruby.l1_cntrl36.mandatoryQueue.avg_buf_msgs     0.593420                       # Average number of messages in buffer
system.ruby.l1_cntrl36.mandatoryQueue.avg_stall_time     0.999850                       # Average number of cycles messages are stalled in this MB
system.ruby.l1_cntrl36.requestFromCache.avg_buf_msgs  5865.337083                       # Average number of messages in buffer
system.ruby.l1_cntrl36.requestFromCache.avg_stall_time    41.863007                       # Average number of cycles messages are stalled in this MB
system.ruby.l1_cntrl37.cacheMemory.demand_accesses            0                       # Number of cache demand accesses
system.ruby.l1_cntrl37.cacheMemory.demand_hits            0                       # Number of cache demand hits
system.ruby.l1_cntrl37.cacheMemory.demand_misses            0                       # Number of cache demand misses
system.ruby.l1_cntrl37.mandatoryQueue.avg_buf_msgs     0.597670                       # Average number of messages in buffer
system.ruby.l1_cntrl37.mandatoryQueue.avg_stall_time     0.999900                       # Average number of cycles messages are stalled in this MB
system.ruby.l1_cntrl37.requestFromCache.avg_buf_msgs  5942.824159                       # Average number of messages in buffer
system.ruby.l1_cntrl37.requestFromCache.avg_stall_time    76.642868                       # Average number of cycles messages are stalled in this MB
system.ruby.l1_cntrl38.cacheMemory.demand_accesses            0                       # Number of cache demand accesses
system.ruby.l1_cntrl38.cacheMemory.demand_hits            0                       # Number of cache demand hits
system.ruby.l1_cntrl38.cacheMemory.demand_misses            0                       # Number of cache demand misses
system.ruby.l1_cntrl38.mandatoryQueue.avg_buf_msgs     0.600870                       # Average number of messages in buffer
system.ruby.l1_cntrl38.mandatoryQueue.avg_stall_time     0.999950                       # Average number of cycles messages are stalled in this MB
system.ruby.l1_cntrl38.requestFromCache.avg_buf_msgs  5990.015249                       # Average number of messages in buffer
system.ruby.l1_cntrl38.requestFromCache.avg_stall_time    53.805710                       # Average number of cycles messages are stalled in this MB
system.ruby.l1_cntrl39.cacheMemory.demand_accesses            0                       # Number of cache demand accesses
system.ruby.l1_cntrl39.cacheMemory.demand_hits            0                       # Number of cache demand hits
system.ruby.l1_cntrl39.cacheMemory.demand_misses            0                       # Number of cache demand misses
system.ruby.l1_cntrl39.mandatoryQueue.avg_buf_msgs     0.598770                       # Average number of messages in buffer
system.ruby.l1_cntrl39.mandatoryQueue.avg_stall_time     0.999950                       # Average number of cycles messages are stalled in this MB
system.ruby.l1_cntrl39.requestFromCache.avg_buf_msgs  5939.105895                       # Average number of messages in buffer
system.ruby.l1_cntrl39.requestFromCache.avg_stall_time    27.919204                       # Average number of cycles messages are stalled in this MB
system.ruby.l1_cntrl4.cacheMemory.demand_accesses            0                       # Number of cache demand accesses
system.ruby.l1_cntrl4.cacheMemory.demand_hits            0                       # Number of cache demand hits
system.ruby.l1_cntrl4.cacheMemory.demand_misses            0                       # Number of cache demand misses
system.ruby.l1_cntrl4.mandatoryQueue.avg_buf_msgs     0.595370                       # Average number of messages in buffer
system.ruby.l1_cntrl4.mandatoryQueue.avg_stall_time     0.999950                       # Average number of cycles messages are stalled in this MB
system.ruby.l1_cntrl4.requestFromCache.avg_buf_msgs  5955.211289                       # Average number of messages in buffer
system.ruby.l1_cntrl4.requestFromCache.avg_stall_time    47.815709                       # Average number of cycles messages are stalled in this MB
system.ruby.l1_cntrl40.cacheMemory.demand_accesses            0                       # Number of cache demand accesses
system.ruby.l1_cntrl40.cacheMemory.demand_hits            0                       # Number of cache demand hits
system.ruby.l1_cntrl40.cacheMemory.demand_misses            0                       # Number of cache demand misses
system.ruby.l1_cntrl40.mandatoryQueue.avg_buf_msgs     0.596220                       # Average number of messages in buffer
system.ruby.l1_cntrl40.mandatoryQueue.avg_stall_time     0.999850                       # Average number of cycles messages are stalled in this MB
system.ruby.l1_cntrl40.requestFromCache.avg_buf_msgs  5891.802010                       # Average number of messages in buffer
system.ruby.l1_cntrl40.requestFromCache.avg_stall_time    90.433578                       # Average number of cycles messages are stalled in this MB
system.ruby.l1_cntrl41.cacheMemory.demand_accesses            0                       # Number of cache demand accesses
system.ruby.l1_cntrl41.cacheMemory.demand_hits            0                       # Number of cache demand hits
system.ruby.l1_cntrl41.cacheMemory.demand_misses            0                       # Number of cache demand misses
system.ruby.l1_cntrl41.mandatoryQueue.avg_buf_msgs     0.596220                       # Average number of messages in buffer
system.ruby.l1_cntrl41.mandatoryQueue.avg_stall_time     0.999950                       # Average number of cycles messages are stalled in this MB
system.ruby.l1_cntrl41.requestFromCache.avg_buf_msgs  5945.808260                       # Average number of messages in buffer
system.ruby.l1_cntrl41.requestFromCache.avg_stall_time    37.861007                       # Average number of cycles messages are stalled in this MB
system.ruby.l1_cntrl42.cacheMemory.demand_accesses            0                       # Number of cache demand accesses
system.ruby.l1_cntrl42.cacheMemory.demand_hits            0                       # Number of cache demand hits
system.ruby.l1_cntrl42.cacheMemory.demand_misses            0                       # Number of cache demand misses
system.ruby.l1_cntrl42.mandatoryQueue.avg_buf_msgs     0.598320                       # Average number of messages in buffer
system.ruby.l1_cntrl42.mandatoryQueue.avg_stall_time     0.999950                       # Average number of cycles messages are stalled in this MB
system.ruby.l1_cntrl42.requestFromCache.avg_buf_msgs  5949.000050                       # Average number of messages in buffer
system.ruby.l1_cntrl42.requestFromCache.avg_stall_time    67.748113                       # Average number of cycles messages are stalled in this MB
system.ruby.l1_cntrl43.cacheMemory.demand_accesses            0                       # Number of cache demand accesses
system.ruby.l1_cntrl43.cacheMemory.demand_hits            0                       # Number of cache demand hits
system.ruby.l1_cntrl43.cacheMemory.demand_misses            0                       # Number of cache demand misses
system.ruby.l1_cntrl43.mandatoryQueue.avg_buf_msgs     0.599770                       # Average number of messages in buffer
system.ruby.l1_cntrl43.mandatoryQueue.avg_stall_time     0.999950                       # Average number of cycles messages are stalled in this MB
system.ruby.l1_cntrl43.requestFromCache.avg_buf_msgs  5965.874106                       # Average number of messages in buffer
system.ruby.l1_cntrl43.requestFromCache.avg_stall_time    35.868807                       # Average number of cycles messages are stalled in this MB
system.ruby.l1_cntrl44.cacheMemory.demand_accesses            0                       # Number of cache demand accesses
system.ruby.l1_cntrl44.cacheMemory.demand_hits            0                       # Number of cache demand hits
system.ruby.l1_cntrl44.cacheMemory.demand_misses            0                       # Number of cache demand misses
system.ruby.l1_cntrl44.mandatoryQueue.avg_buf_msgs     0.596270                       # Average number of messages in buffer
system.ruby.l1_cntrl44.mandatoryQueue.avg_stall_time     0.999950                       # Average number of cycles messages are stalled in this MB
system.ruby.l1_cntrl44.requestFromCache.avg_buf_msgs  5906.779411                       # Average number of messages in buffer
system.ruby.l1_cntrl44.requestFromCache.avg_stall_time    94.558072                       # Average number of cycles messages are stalled in this MB
system.ruby.l1_cntrl45.cacheMemory.demand_accesses            0                       # Number of cache demand accesses
system.ruby.l1_cntrl45.cacheMemory.demand_hits            0                       # Number of cache demand hits
system.ruby.l1_cntrl45.cacheMemory.demand_misses            0                       # Number of cache demand misses
system.ruby.l1_cntrl45.mandatoryQueue.avg_buf_msgs     0.605070                       # Average number of messages in buffer
system.ruby.l1_cntrl45.mandatoryQueue.avg_stall_time     0.999950                       # Average number of cycles messages are stalled in this MB
system.ruby.l1_cntrl45.requestFromCache.avg_buf_msgs  6005.141443                       # Average number of messages in buffer
system.ruby.l1_cntrl45.requestFromCache.avg_stall_time    29.911404                       # Average number of cycles messages are stalled in this MB
system.ruby.l1_cntrl46.cacheMemory.demand_accesses            0                       # Number of cache demand accesses
system.ruby.l1_cntrl46.cacheMemory.demand_hits            0                       # Number of cache demand hits
system.ruby.l1_cntrl46.cacheMemory.demand_misses            0                       # Number of cache demand misses
system.ruby.l1_cntrl46.mandatoryQueue.avg_buf_msgs     0.597620                       # Average number of messages in buffer
system.ruby.l1_cntrl46.mandatoryQueue.avg_stall_time     0.999950                       # Average number of cycles messages are stalled in this MB
system.ruby.l1_cntrl46.requestFromCache.avg_buf_msgs  5921.549823                       # Average number of messages in buffer
system.ruby.l1_cntrl46.requestFromCache.avg_stall_time    49.794610                       # Average number of cycles messages are stalled in this MB
system.ruby.l1_cntrl47.cacheMemory.demand_accesses            0                       # Number of cache demand accesses
system.ruby.l1_cntrl47.cacheMemory.demand_hits            0                       # Number of cache demand hits
system.ruby.l1_cntrl47.cacheMemory.demand_misses            0                       # Number of cache demand misses
system.ruby.l1_cntrl47.mandatoryQueue.avg_buf_msgs     0.601620                       # Average number of messages in buffer
system.ruby.l1_cntrl47.mandatoryQueue.avg_stall_time     0.999900                       # Average number of cycles messages are stalled in this MB
system.ruby.l1_cntrl47.requestFromCache.avg_buf_msgs  5979.653117                       # Average number of messages in buffer
system.ruby.l1_cntrl47.requestFromCache.avg_stall_time    57.771411                       # Average number of cycles messages are stalled in this MB
system.ruby.l1_cntrl48.cacheMemory.demand_accesses            0                       # Number of cache demand accesses
system.ruby.l1_cntrl48.cacheMemory.demand_hits            0                       # Number of cache demand hits
system.ruby.l1_cntrl48.cacheMemory.demand_misses            0                       # Number of cache demand misses
system.ruby.l1_cntrl48.mandatoryQueue.avg_buf_msgs     0.602070                       # Average number of messages in buffer
system.ruby.l1_cntrl48.mandatoryQueue.avg_stall_time     0.999800                       # Average number of cycles messages are stalled in this MB
system.ruby.l1_cntrl48.requestFromCache.avg_buf_msgs  5990.714064                       # Average number of messages in buffer
system.ruby.l1_cntrl48.requestFromCache.avg_stall_time    55.773861                       # Average number of cycles messages are stalled in this MB
system.ruby.l1_cntrl49.cacheMemory.demand_accesses            0                       # Number of cache demand accesses
system.ruby.l1_cntrl49.cacheMemory.demand_hits            0                       # Number of cache demand hits
system.ruby.l1_cntrl49.cacheMemory.demand_misses            0                       # Number of cache demand misses
system.ruby.l1_cntrl49.mandatoryQueue.avg_buf_msgs     0.601720                       # Average number of messages in buffer
system.ruby.l1_cntrl49.mandatoryQueue.avg_stall_time     0.999950                       # Average number of cycles messages are stalled in this MB
system.ruby.l1_cntrl49.requestFromCache.avg_buf_msgs  6003.016349                       # Average number of messages in buffer
system.ruby.l1_cntrl49.requestFromCache.avg_stall_time    24.931803                       # Average number of cycles messages are stalled in this MB
system.ruby.l1_cntrl5.cacheMemory.demand_accesses            0                       # Number of cache demand accesses
system.ruby.l1_cntrl5.cacheMemory.demand_hits            0                       # Number of cache demand hits
system.ruby.l1_cntrl5.cacheMemory.demand_misses            0                       # Number of cache demand misses
system.ruby.l1_cntrl5.mandatoryQueue.avg_buf_msgs     0.592920                       # Average number of messages in buffer
system.ruby.l1_cntrl5.mandatoryQueue.avg_stall_time     0.999950                       # Average number of cycles messages are stalled in this MB
system.ruby.l1_cntrl5.requestFromCache.avg_buf_msgs  5896.845058                       # Average number of messages in buffer
system.ruby.l1_cntrl5.requestFromCache.avg_stall_time    23.941453                       # Average number of cycles messages are stalled in this MB
system.ruby.l1_cntrl50.cacheMemory.demand_accesses            0                       # Number of cache demand accesses
system.ruby.l1_cntrl50.cacheMemory.demand_hits            0                       # Number of cache demand hits
system.ruby.l1_cntrl50.cacheMemory.demand_misses            0                       # Number of cache demand misses
system.ruby.l1_cntrl50.mandatoryQueue.avg_buf_msgs     0.599470                       # Average number of messages in buffer
system.ruby.l1_cntrl50.mandatoryQueue.avg_stall_time     0.999950                       # Average number of cycles messages are stalled in this MB
system.ruby.l1_cntrl50.requestFromCache.avg_buf_msgs  5961.271286                       # Average number of messages in buffer
system.ruby.l1_cntrl50.requestFromCache.avg_stall_time   113.442628                       # Average number of cycles messages are stalled in this MB
system.ruby.l1_cntrl51.cacheMemory.demand_accesses            0                       # Number of cache demand accesses
system.ruby.l1_cntrl51.cacheMemory.demand_hits            0                       # Number of cache demand hits
system.ruby.l1_cntrl51.cacheMemory.demand_misses            0                       # Number of cache demand misses
system.ruby.l1_cntrl51.mandatoryQueue.avg_buf_msgs     0.598020                       # Average number of messages in buffer
system.ruby.l1_cntrl51.mandatoryQueue.avg_stall_time     0.999950                       # Average number of cycles messages are stalled in this MB
system.ruby.l1_cntrl51.requestFromCache.avg_buf_msgs  5897.604120                       # Average number of messages in buffer
system.ruby.l1_cntrl51.requestFromCache.avg_stall_time    32.895455                       # Average number of cycles messages are stalled in this MB
system.ruby.l1_cntrl52.cacheMemory.demand_accesses            0                       # Number of cache demand accesses
system.ruby.l1_cntrl52.cacheMemory.demand_hits            0                       # Number of cache demand hits
system.ruby.l1_cntrl52.cacheMemory.demand_misses            0                       # Number of cache demand misses
system.ruby.l1_cntrl52.mandatoryQueue.avg_buf_msgs     0.602770                       # Average number of messages in buffer
system.ruby.l1_cntrl52.mandatoryQueue.avg_stall_time     0.999950                       # Average number of cycles messages are stalled in this MB
system.ruby.l1_cntrl52.requestFromCache.avg_buf_msgs  6010.878956                       # Average number of messages in buffer
system.ruby.l1_cntrl52.requestFromCache.avg_stall_time    83.647568                       # Average number of cycles messages are stalled in this MB
system.ruby.l1_cntrl53.cacheMemory.demand_accesses            0                       # Number of cache demand accesses
system.ruby.l1_cntrl53.cacheMemory.demand_hits            0                       # Number of cache demand hits
system.ruby.l1_cntrl53.cacheMemory.demand_misses            0                       # Number of cache demand misses
system.ruby.l1_cntrl53.mandatoryQueue.avg_buf_msgs     0.594470                       # Average number of messages in buffer
system.ruby.l1_cntrl53.mandatoryQueue.avg_stall_time     0.999700                       # Average number of cycles messages are stalled in this MB
system.ruby.l1_cntrl53.requestFromCache.avg_buf_msgs  5916.090345                       # Average number of messages in buffer
system.ruby.l1_cntrl53.requestFromCache.avg_stall_time   103.452477                       # Average number of cycles messages are stalled in this MB
system.ruby.l1_cntrl54.cacheMemory.demand_accesses            0                       # Number of cache demand accesses
system.ruby.l1_cntrl54.cacheMemory.demand_hits            0                       # Number of cache demand hits
system.ruby.l1_cntrl54.cacheMemory.demand_misses            0                       # Number of cache demand misses
system.ruby.l1_cntrl54.mandatoryQueue.avg_buf_msgs     0.599670                       # Average number of messages in buffer
system.ruby.l1_cntrl54.mandatoryQueue.avg_stall_time     0.999950                       # Average number of cycles messages are stalled in this MB
system.ruby.l1_cntrl54.requestFromCache.avg_buf_msgs  5966.813659                       # Average number of messages in buffer
system.ruby.l1_cntrl54.requestFromCache.avg_stall_time   117.355882                       # Average number of cycles messages are stalled in this MB
system.ruby.l1_cntrl55.cacheMemory.demand_accesses            0                       # Number of cache demand accesses
system.ruby.l1_cntrl55.cacheMemory.demand_hits            0                       # Number of cache demand hits
system.ruby.l1_cntrl55.cacheMemory.demand_misses            0                       # Number of cache demand misses
system.ruby.l1_cntrl55.mandatoryQueue.avg_buf_msgs     0.600920                       # Average number of messages in buffer
system.ruby.l1_cntrl55.mandatoryQueue.avg_stall_time     0.999950                       # Average number of cycles messages are stalled in this MB
system.ruby.l1_cntrl55.requestFromCache.avg_buf_msgs  5961.326084                       # Average number of messages in buffer
system.ruby.l1_cntrl55.requestFromCache.avg_stall_time   109.340833                       # Average number of cycles messages are stalled in this MB
system.ruby.l1_cntrl56.cacheMemory.demand_accesses            0                       # Number of cache demand accesses
system.ruby.l1_cntrl56.cacheMemory.demand_hits            0                       # Number of cache demand hits
system.ruby.l1_cntrl56.cacheMemory.demand_misses            0                       # Number of cache demand misses
system.ruby.l1_cntrl56.mandatoryQueue.avg_buf_msgs     0.595120                       # Average number of messages in buffer
system.ruby.l1_cntrl56.mandatoryQueue.avg_stall_time     0.999950                       # Average number of cycles messages are stalled in this MB
system.ruby.l1_cntrl56.requestFromCache.avg_buf_msgs  5929.122194                       # Average number of messages in buffer
system.ruby.l1_cntrl56.requestFromCache.avg_stall_time    66.541323                       # Average number of cycles messages are stalled in this MB
system.ruby.l1_cntrl57.cacheMemory.demand_accesses            0                       # Number of cache demand accesses
system.ruby.l1_cntrl57.cacheMemory.demand_hits            0                       # Number of cache demand hits
system.ruby.l1_cntrl57.cacheMemory.demand_misses            0                       # Number of cache demand misses
system.ruby.l1_cntrl57.mandatoryQueue.avg_buf_msgs     0.604970                       # Average number of messages in buffer
system.ruby.l1_cntrl57.mandatoryQueue.avg_stall_time     0.999950                       # Average number of cycles messages are stalled in this MB
system.ruby.l1_cntrl57.requestFromCache.avg_buf_msgs  5994.941553                       # Average number of messages in buffer
system.ruby.l1_cntrl57.requestFromCache.avg_stall_time    50.828709                       # Average number of cycles messages are stalled in this MB
system.ruby.l1_cntrl58.cacheMemory.demand_accesses            0                       # Number of cache demand accesses
system.ruby.l1_cntrl58.cacheMemory.demand_hits            0                       # Number of cache demand hits
system.ruby.l1_cntrl58.cacheMemory.demand_misses            0                       # Number of cache demand misses
system.ruby.l1_cntrl58.mandatoryQueue.avg_buf_msgs     0.600970                       # Average number of messages in buffer
system.ruby.l1_cntrl58.mandatoryQueue.avg_stall_time     0.999950                       # Average number of cycles messages are stalled in this MB
system.ruby.l1_cntrl58.requestFromCache.avg_buf_msgs  5985.355632                       # Average number of messages in buffer
system.ruby.l1_cntrl58.requestFromCache.avg_stall_time    96.464927                       # Average number of cycles messages are stalled in this MB
system.ruby.l1_cntrl59.cacheMemory.demand_accesses            0                       # Number of cache demand accesses
system.ruby.l1_cntrl59.cacheMemory.demand_hits            0                       # Number of cache demand hits
[...]
system.mem_ctrls59.rdQLenPdf::2                     0                       # What read queue length does an incoming req see
system.mem_ctrls59.rdQLenPdf::3                     0                       # What read queue length does an incoming req see
system.mem_ctrls59.rdQLenPdf::4                     0                       # What read queue length does an incoming req see
system.mem_ctrls59.rdQLenPdf::5                     0                       # What read queue length does an incoming req see
system.mem_ctrls59.rdQLenPdf::6                     0                       # What read queue length does an incoming req see
system.mem_ctrls59.rdQLenPdf::7                     0                       # What read queue length does an incoming req see
system.mem_ctrls59.rdQLenPdf::8                     0                       # What read queue length does an incoming req see
system.mem_ctrls59.rdQLenPdf::9                     0                       # What read queue length does an incoming req see
system.mem_ctrls59.rdQLenPdf::10                    0                       # What read queue length does an incoming req see
system.mem_ctrls59.rdQLenPdf::11                    0                       # What read queue length does an incoming req see
system.mem_ctrls59.rdQLenPdf::12                    0                       # What read queue length does an incoming req see
system.mem_ctrls59.rdQLenPdf::13                    0                       # What read queue length does an incoming req see
system.mem_ctrls59.rdQLenPdf::14                    0                       # What read queue length does an incoming req see
system.mem_ctrls59.rdQLenPdf::15                    0                       # What read queue length does an incoming req see
system.mem_ctrls59.rdQLenPdf::16                    0                       # What read queue length does an incoming req see
system.mem_ctrls59.rdQLenPdf::17                    0                       # What read queue length does an incoming req see
system.mem_ctrls59.rdQLenPdf::18                    0                       # What read queue length does an incoming req see
system.mem_ctrls59.rdQLenPdf::19                    0                       # What read queue length does an incoming req see
system.mem_ctrls59.rdQLenPdf::20                    0                       # What read queue length does an incoming req see
system.mem_ctrls59.rdQLenPdf::21                    0                       # What read queue length does an incoming req see
system.mem_ctrls59.rdQLenPdf::22                    0                       # What read queue length does an incoming req see
system.mem_ctrls59.rdQLenPdf::23                    0                       # What read queue length does an incoming req see
system.mem_ctrls59.rdQLenPdf::24                    0                       # What read queue length does an incoming req see
system.mem_ctrls59.rdQLenPdf::25                    0                       # What read queue length does an incoming req see
system.mem_ctrls59.rdQLenPdf::26                    0                       # What read queue length does an incoming req see
system.mem_ctrls59.rdQLenPdf::27                    0                       # What read queue length does an incoming req see
system.mem_ctrls59.rdQLenPdf::28                    0                       # What read queue length does an incoming req see
system.mem_ctrls59.rdQLenPdf::29                    0                       # What read queue length does an incoming req see
system.mem_ctrls59.rdQLenPdf::30                    0                       # What read queue length does an incoming req see
system.mem_ctrls59.rdQLenPdf::31                    0                       # What read queue length does an incoming req see
system.mem_ctrls59.wrQLenPdf::0                     0                       # What write queue length does an incoming req see
system.mem_ctrls59.wrQLenPdf::1                     0                       # What write queue length does an incoming req see
system.mem_ctrls59.wrQLenPdf::2                     0                       # What write queue length does an incoming req see
system.mem_ctrls59.wrQLenPdf::3                     0                       # What write queue length does an incoming req see
system.mem_ctrls59.wrQLenPdf::4                     0                       # What write queue length does an incoming req see
system.mem_ctrls59.wrQLenPdf::5                     0                       # What write queue length does an incoming req see
system.mem_ctrls59.wrQLenPdf::6                     0                       # What write queue length does an incoming req see
system.mem_ctrls59.wrQLenPdf::7                     0                       # What write queue length does an incoming req see
system.mem_ctrls59.wrQLenPdf::8                     0                       # What write queue length does an incoming req see
system.mem_ctrls59.wrQLenPdf::9                     0                       # What write queue length does an incoming req see
system.mem_ctrls59.wrQLenPdf::10                    0                       # What write queue length does an incoming req see
system.mem_ctrls59.wrQLenPdf::11                    0                       # What write queue length does an incoming req see
system.mem_ctrls59.wrQLenPdf::12                    0                       # What write queue length does an incoming req see
system.mem_ctrls59.wrQLenPdf::13                    0                       # What write queue length does an incoming req see
system.mem_ctrls59.wrQLenPdf::14                    0                       # What write queue length does an incoming req see
system.mem_ctrls59.wrQLenPdf::15                    0                       # What write queue length does an incoming req see
system.mem_ctrls59.wrQLenPdf::16                    0                       # What write queue length does an incoming req see
system.mem_ctrls59.wrQLenPdf::17                    0                       # What write queue length does an incoming req see
system.mem_ctrls59.wrQLenPdf::18                    0                       # What write queue length does an incoming req see
system.mem_ctrls59.wrQLenPdf::19                    0                       # What write queue length does an incoming req see
system.mem_ctrls59.wrQLenPdf::20                    0                       # What write queue length does an incoming req see
system.mem_ctrls59.wrQLenPdf::21                    0                       # What write queue length does an incoming req see
system.mem_ctrls59.wrQLenPdf::22                    0                       # What write queue length does an incoming req see
system.mem_ctrls59.wrQLenPdf::23                    0                       # What write queue length does an incoming req see
system.mem_ctrls59.wrQLenPdf::24                    0                       # What write queue length does an incoming req see
system.mem_ctrls59.wrQLenPdf::25                    0                       # What write queue length does an incoming req see
system.mem_ctrls59.wrQLenPdf::26                    0                       # What write queue length does an incoming req see
system.mem_ctrls59.wrQLenPdf::27                    0                       # What write queue length does an incoming req see
system.mem_ctrls59.wrQLenPdf::28                    0                       # What write queue length does an incoming req see
system.mem_ctrls59.wrQLenPdf::29                    0                       # What write queue length does an incoming req see
system.mem_ctrls59.wrQLenPdf::30                    0                       # What write queue length does an incoming req see
system.mem_ctrls59.wrQLenPdf::31                    0                       # What write queue length does an incoming req see
system.mem_ctrls59.wrQLenPdf::32                    0                       # What write queue length does an incoming req see
system.mem_ctrls59.wrQLenPdf::33                    0                       # What write queue length does an incoming req see
system.mem_ctrls59.wrQLenPdf::34                    0                       # What write queue length does an incoming req see
system.mem_ctrls59.wrQLenPdf::35                    0                       # What write queue length does an incoming req see
system.mem_ctrls59.wrQLenPdf::36                    0                       # What write queue length does an incoming req see
system.mem_ctrls59.wrQLenPdf::37                    0                       # What write queue length does an incoming req see
system.mem_ctrls59.wrQLenPdf::38                    0                       # What write queue length does an incoming req see
system.mem_ctrls59.wrQLenPdf::39                    0                       # What write queue length does an incoming req see
system.mem_ctrls59.wrQLenPdf::40                    0                       # What write queue length does an incoming req see
system.mem_ctrls59.wrQLenPdf::41                    0                       # What write queue length does an incoming req see
system.mem_ctrls59.wrQLenPdf::42                    0                       # What write queue length does an incoming req see
system.mem_ctrls59.wrQLenPdf::43                    0                       # What write queue length does an incoming req see
system.mem_ctrls59.wrQLenPdf::44                    0                       # What write queue length does an incoming req see
system.mem_ctrls59.wrQLenPdf::45                    0                       # What write queue length does an incoming req see
system.mem_ctrls59.wrQLenPdf::46                    0                       # What write queue length does an incoming req see
system.mem_ctrls59.wrQLenPdf::47                    0                       # What write queue length does an incoming req see
system.mem_ctrls59.wrQLenPdf::48                    0                       # What write queue length does an incoming req see
system.mem_ctrls59.wrQLenPdf::49                    0                       # What write queue length does an incoming req see
system.mem_ctrls59.wrQLenPdf::50                    0                       # What write queue length does an incoming req see
system.mem_ctrls59.wrQLenPdf::51                    0                       # What write queue length does an incoming req see
system.mem_ctrls59.wrQLenPdf::52                    0                       # What write queue length does an incoming req see
system.mem_ctrls59.wrQLenPdf::53                    0                       # What write queue length does an incoming req see
system.mem_ctrls59.wrQLenPdf::54                    0                       # What write queue length does an incoming req see
system.mem_ctrls59.wrQLenPdf::55                    0                       # What write queue length does an incoming req see
system.mem_ctrls59.wrQLenPdf::56                    0                       # What write queue length does an incoming req see
system.mem_ctrls59.wrQLenPdf::57                    0                       # What write queue length does an incoming req see
system.mem_ctrls59.wrQLenPdf::58                    0                       # What write queue length does an incoming req see
system.mem_ctrls59.wrQLenPdf::59                    0                       # What write queue length does an incoming req see
system.mem_ctrls59.wrQLenPdf::60                    0                       # What write queue length does an incoming req see
system.mem_ctrls59.wrQLenPdf::61                    0                       # What write queue length does an incoming req see
system.mem_ctrls59.wrQLenPdf::62                    0                       # What write queue length does an incoming req see
system.mem_ctrls59.wrQLenPdf::63                    0                       # What write queue length does an incoming req see
system.mem_ctrls59.bytesReadDRAM                    0                       # Total number of bytes read from DRAM
system.mem_ctrls59.bytesReadWrQ                     0                       # Total number of bytes read from write queue
system.mem_ctrls59.bytesWritten                     0                       # Total number of bytes written to DRAM
system.mem_ctrls59.bytesReadSys                     0                       # Total read bytes from the system interface side
system.mem_ctrls59.bytesWrittenSys                  0                       # Total written bytes from the system interface side
system.mem_ctrls59.avgRdBW                       0.00                       # Average DRAM read bandwidth in MiByte/s
system.mem_ctrls59.avgWrBW                       0.00                       # Average achieved write bandwidth in MiByte/s
system.mem_ctrls59.avgRdBWSys                    0.00                       # Average system read bandwidth in MiByte/s
system.mem_ctrls59.avgWrBWSys                    0.00                       # Average system write bandwidth in MiByte/s
system.mem_ctrls59.peakBW                    12800.00                       # Theoretical peak bandwidth in MiByte/s
system.mem_ctrls59.busUtil                       0.00                       # Data bus utilization in percentage
system.mem_ctrls59.busUtilRead                   0.00                       # Data bus utilization in percentage for reads
system.mem_ctrls59.busUtilWrite                  0.00                       # Data bus utilization in percentage for writes
system.mem_ctrls59.totGap                           0                       # Total gap between requests
system.mem_ctrls59.avgGap                         nan                       # Average gap between requests
system.mem_ctrls59.pageHitRate                    nan                       # Row buffer hit rate, read and write combined
system.mem_ctrls59.rank1.actEnergy                  0                       # Energy for activate commands per rank (pJ)
system.mem_ctrls59.rank1.preEnergy                  0                       # Energy for precharge commands per rank (pJ)
system.mem_ctrls59.rank1.readEnergy                 0                       # Energy for read commands per rank (pJ)
system.mem_ctrls59.rank1.writeEnergy                0                       # Energy for write commands per rank (pJ)
system.mem_ctrls59.rank1.refreshEnergy   1229280.000000                       # Energy for refresh commands per rank (pJ)
system.mem_ctrls59.rank1.actBackEnergy         224352                       # Energy for active background per rank (pJ)
system.mem_ctrls59.rank1.preBackEnergy        7491072                       # Energy for precharge background per rank (pJ)
system.mem_ctrls59.rank1.actPowerDownEnergy            0                       # Energy for active power-down per rank (pJ)
system.mem_ctrls59.rank1.prePowerDownEnergy            0                       # Energy for precharge power-down per rank (pJ)
system.mem_ctrls59.rank1.selfRefreshEnergy            0                       # Energy for self refresh per rank (pJ)
system.mem_ctrls59.rank1.totalEnergy          8944704                       # Total energy per rank (pJ)
system.mem_ctrls59.rank1.averagePower      447.235200                       # Core power per rank (mW)
system.mem_ctrls59.rank1.totalIdleTime              0                       # Total Idle time Per DRAM Rank
system.mem_ctrls59.rank1.memoryStateTime::IDLE        19480                       # Time in different power states
system.mem_ctrls59.rank1.memoryStateTime::REF          520                       # Time in different power states
system.mem_ctrls59.rank1.memoryStateTime::SREF            0                       # Time in different power states
system.mem_ctrls59.rank1.memoryStateTime::PRE_PDN            0                       # Time in different power states
system.mem_ctrls59.rank1.memoryStateTime::ACT            0                       # Time in different power states
system.mem_ctrls59.rank1.memoryStateTime::ACT_PDN            0                       # Time in different power states
system.mem_ctrls59.rank0.actEnergy                  0                       # Energy for activate commands per rank (pJ)
system.mem_ctrls59.rank0.preEnergy                  0                       # Energy for precharge commands per rank (pJ)
system.mem_ctrls59.rank0.readEnergy                 0                       # Energy for read commands per rank (pJ)
system.mem_ctrls59.rank0.writeEnergy                0                       # Energy for write commands per rank (pJ)
system.mem_ctrls59.rank0.refreshEnergy   1229280.000000                       # Energy for refresh commands per rank (pJ)
system.mem_ctrls59.rank0.actBackEnergy         224352                       # Energy for active background per rank (pJ)
system.mem_ctrls59.rank0.preBackEnergy        7491072                       # Energy for precharge background per rank (pJ)
system.mem_ctrls59.rank0.actPowerDownEnergy            0                       # Energy for active power-down per rank (pJ)
system.mem_ctrls59.rank0.prePowerDownEnergy            0                       # Energy for precharge power-down per rank (pJ)
system.mem_ctrls59.rank0.selfRefreshEnergy            0                       # Energy for self refresh per rank (pJ)
system.mem_ctrls59.rank0.totalEnergy          8944704                       # Total energy per rank (pJ)
system.mem_ctrls59.rank0.averagePower      447.235200                       # Core power per rank (mW)
system.mem_ctrls59.rank0.totalIdleTime              0                       # Total Idle time Per DRAM Rank
system.mem_ctrls59.rank0.memoryStateTime::IDLE        19480                       # Time in different power states
system.mem_ctrls59.rank0.memoryStateTime::REF          520                       # Time in different power states
system.mem_ctrls59.rank0.memoryStateTime::SREF            0                       # Time in different power states
system.mem_ctrls59.rank0.memoryStateTime::PRE_PDN            0                       # Time in different power states
system.mem_ctrls59.rank0.memoryStateTime::ACT            0                       # Time in different power states
system.mem_ctrls59.rank0.memoryStateTime::ACT_PDN            0                       # Time in different power states
system.mem_ctrls59.power_state.pwrStateResidencyTicks::UNDEFINED        20000                       # Cumulative time (in ticks) in various power states
system.cpu29.power_state.pwrStateResidencyTicks::UNDEFINED        20000                       # Cumulative time (in ticks) in various power states
system.cpu28.power_state.pwrStateResidencyTicks::UNDEFINED        20000                       # Cumulative time (in ticks) in various power states
system.cpu25.power_state.pwrStateResidencyTicks::UNDEFINED        20000                       # Cumulative time (in ticks) in various power states
system.cpu24.power_state.pwrStateResidencyTicks::UNDEFINED        20000                       # Cumulative time (in ticks) in various power states
system.cpu27.power_state.pwrStateResidencyTicks::UNDEFINED        20000                       # Cumulative time (in ticks) in various power states
system.cpu26.power_state.pwrStateResidencyTicks::UNDEFINED        20000                       # Cumulative time (in ticks) in various power states
system.cpu21.power_state.pwrStateResidencyTicks::UNDEFINED        20000                       # Cumulative time (in ticks) in various power states
system.cpu20.power_state.pwrStateResidencyTicks::UNDEFINED        20000                       # Cumulative time (in ticks) in various power states
system.cpu23.power_state.pwrStateResidencyTicks::UNDEFINED        20000                       # Cumulative time (in ticks) in various power states
system.cpu22.power_state.pwrStateResidencyTicks::UNDEFINED        20000                       # Cumulative time (in ticks) in various power states

---------- End Simulation Statistics   ----------
